7AYQ
     RDKit          3D

 32 34  0  0  0  0  0  0  0  0999 V2000
   80.2339   74.7919   -1.6886 O   0  0  0  0  0  0  0  0  0  0  0  0
   84.2733   70.8947   -1.7132 C   0  0  0  0  0  0  0  0  0  0  0  0
   85.0492   70.2505   -2.6812 C   0  0  0  0  0  0  0  0  0  0  0  0
   85.3797   70.0378   -3.1533 C   0  0  0  0  0  0  0  0  0  0  0  0
   86.2956   69.3793   -4.0427 C   0  0  0  0  0  0  0  0  0  0  0  0
   86.8032   69.0211   -4.3673 C   0  0  0  0  0  0  0  0  0  0  0  0
   86.3736   69.3368   -4.0731 C   0  0  0  0  0  0  0  0  0  0  0  0
   85.4181   69.9419   -3.1722 C   0  0  0  0  0  0  0  0  0  0  0  0
   82.8948   72.3990   -1.5825 C   0  0  0  0  0  0  0  0  0  0  0  0
   81.8650   73.5730   -1.6444 C   0  0  0  0  0  0  0  0  0  0  0  0
   81.8423   73.5166   -1.6225 C   0  0  0  0  0  0  0  0  0  0  0  0
   79.6358   77.7325   -3.3627 C   0  0  0  0  0  0  0  0  0  0  0  0
   79.9811   76.5685   -2.9040 C   0  0  0  0  0  0  0  0  0  0  0  0
   80.4476   76.4884   -1.9674 C   0  0  0  0  0  0  0  0  0  0  0  0
   80.7292   75.1788   -1.7980 C   0  0  0  0  0  0  0  0  0  0  0  0
   82.8040   72.4375   -1.5456 C   0  0  0  0  0  0  0  0  0  0  0  0
   79.7826   78.9151   -2.6401 C   0  0  0  0  0  0  0  0  0  0  0  0
   80.1870   78.9163   -1.6968 C   0  0  0  0  0  0  0  0  0  0  0  0
   80.5319   77.6710   -1.3708 C   0  0  0  0  0  0  0  0  0  0  0  0
   80.1407   81.2414   -0.9886 C   0  0  0  0  0  0  0  0  0  0  0  0
   83.4212   71.8245   -1.6075 N   0  0  0  0  0  4  0  0  0  0  0  0
   81.4068   74.1467   -1.7136 N   0  0  0  0  0  0  0  0  0  0  0  0
   80.1740   80.2800   -1.2713 N   0  0  0  0  0  0  0  0  0  0  0  0
   80.3994   82.5276   -0.5580 C   0  0  0  0  0  0  0  0  0  0  0  0
   79.5452   82.9386    0.1706 C   0  0  0  0  0  3  0  0  0  0  0  0
   79.2671   82.9735    0.3989 O   0  0  0  0  0  0  0  0  0  0  0  0
   79.9544   81.2333   -0.9741 O   0  0  0  0  0  0  0  0  0  0  0  0
   81.0184   83.0113   -0.6220 C   0  0  0  0  0  0  0  0  0  0  0  0
   81.3704   83.3236   -0.5633 C   0  0  0  0  0  0  0  0  0  0  0  0
   81.0024   83.0650   -0.6062 C   0  0  0  0  0  0  0  0  0  0  0  0
   81.4568   83.2866   -0.6288 C   0  0  0  0  0  0  0  0  0  0  0  0
   88.0495   68.0424   -5.2880 Br  0  0  0  0  0  0  0  0  0  0  0  0
  1 15  2  0
  2  3  1  0
  2 21  1  0
  3  4  2  0
  3  8  1  0
  4  5  1  0
  5  6  2  0
  6  7  1  0
  6 32  1  0
  7  8  2  0
  9 10  1  0
  9 21  1  0
 10 22  1  0
 11 16  1  0
 11 22  1  0
 12 13  2  0
 12 17  1  0
 13 14  1  0
 14 15  1  0
 14 19  2  0
 15 22  1  0
 16 21  1  0
 17 18  2  0
 18 19  1  0
 18 23  1  0
 20 23  1  0
 20 24  1  0
 20 27  2  0
 24 25  1  0
 24 28  1  0
 24 30  1  0
 25 26  2  0
 28 29  1  0
 30 31  1  0
M  CHG  1  21   1
M  RAD  1  25   2
M  END
