@<TRIPOS>MOLECULE
7AYQ
62   64    1
SMALL
USER_CHARGES


@<TRIPOS>ATOM
      1 O1         80.0010   75.4800   -2.2970 O.2       1 UNK         0.0000 
      2 C2         83.7750   70.4640   -2.2050 C.3       1 UNK         0.0000 
      3 C3         84.8990   70.0850   -3.1630 C.ar      1 UNK         0.0000 
      4 C4         86.1080   69.5500   -2.6700 C.ar      1 UNK         0.0000 
      5 C5         87.1170   69.1310   -3.5610 C.ar      1 UNK         0.0000 
      6 C6         86.9380   69.2750   -4.9500 C.ar      1 UNK         0.0000 
      7 C7         85.7600   69.8670   -5.4400 C.ar      1 UNK         0.0000 
      8 C8         84.7360   70.2490   -4.5570 C.ar      1 UNK         0.0000 
      9 C9         81.7120   71.8620   -2.0670 C.3       1 UNK         0.0000 
     10 C10        80.9430   72.9170   -2.8800 C.3       1 UNK         0.0000 
     11 C11        83.1060   73.9910   -3.4610 C.3       1 UNK         0.0000 
     12 C12        82.9030   77.9930   -4.9830 C.ar      1 UNK         0.0000 
     13 C13        82.3300   76.7750   -4.5760 C.ar      1 UNK         0.0000 
     14 C14        81.7970   76.6390   -3.2730 C.ar      1 UNK         0.0000 
     15 C15        81.1080   75.3750   -2.8300 C.2       1 UNK         0.0000 
     16 C16        83.8160   72.9240   -2.6180 C.3       1 UNK         0.0000 
     17 C17        82.9010   79.0990   -4.1130 C.ar      1 UNK         0.0000 
     18 C18        82.3370   78.9990   -2.8240 C.ar      1 UNK         0.0000 
     19 C19        81.8080   77.7520   -2.4060 C.ar      1 UNK         0.0000 
     20 C20        81.6110   80.4650   -0.9180 C.2       1 UNK         0.0000 
     21 N21        83.0450   71.6670   -2.6670 N.4       1 UNK         0.0000 
     22 N22        81.7040   74.1730   -3.0380 N.am      1 UNK         0.0000 
     23 N23        82.3170   80.1860   -2.0350 N.am      1 UNK         0.0000 
     24 C24        81.5710   81.9460   -0.4380 C.3       1 UNK         0.0000 
     25 C25        81.8230   81.9220    1.0950 C         1 UNK         0.0000 
     26 O26        80.9310   82.1520    1.9150 O.2       1 UNK         0.0000 
     27 O27        80.9900   79.6120   -0.2790 O.2       1 UNK         0.0000 
     28 C28        80.1450   82.5150   -0.7210 C.3       1 UNK         0.0000 
     29 C29        79.7310   82.6120   -2.2010 C.3       1 UNK         0.0000 
     30 C30        82.6710   82.8240   -1.1250 C.3       1 UNK         0.0000 
     31 C31        82.7740   84.2780   -0.6290 C.3       1 UNK         0.0000 
     32 Br32       88.2600   68.6450   -6.1690 Br        1 UNK         0.0000 
     33 H33        84.1580   70.6180   -1.1980 H         1 UNK         0.0000 
     34 H34        83.0910   69.6150   -2.1580 H         1 UNK         0.0000 
     35 H35        86.2580   69.4350   -1.6060 H         1 UNK         0.0000 
     36 H36        88.0270   68.6940   -3.1780 H         1 UNK         0.0000 
     37 H37        85.6140   69.9920   -6.4980 H         1 UNK         0.0000 
     38 H38        83.8250   70.6570   -4.9700 H         1 UNK         0.0000 
     39 H39        81.1600   70.9250   -2.0580 H         1 UNK         0.0000 
     40 H40        81.8160   72.1790   -1.0280 H         1 UNK         0.0000 
     41 H41        79.9690   73.0640   -2.4140 H         1 UNK         0.0000 
     42 H42        80.7360   72.5260   -3.8770 H         1 UNK         0.0000 
     43 H43        83.1170   73.7050   -4.5140 H         1 UNK         0.0000 
     44 H44        83.6930   74.9020   -3.3810 H         1 UNK         0.0000 
     45 H45        83.3240   78.0870   -5.9720 H         1 UNK         0.0000 
     46 H46        82.3030   75.9480   -5.2710 H         1 UNK         0.0000 
     47 H47        83.9200   73.2570   -1.5850 H         1 UNK         0.0000 
     48 H48        84.8210   72.7680   -2.9940 H         1 UNK         0.0000 
     49 H49        83.3220   80.0360   -4.4490 H         1 UNK         0.0000 
     50 H50        81.3820   77.6200   -1.4250 H         1 UNK         0.0000 
     51 H51        82.8680   71.4920   -3.6460 H         1 UNK         0.0000 
     52 H52        82.7910   80.9770   -2.4480 H         1 UNK         0.0000 
     53 H53        80.0440   83.5050   -0.2730 H         1 UNK         0.0000 
     54 H54        79.3980   81.9010   -0.2140 H         1 UNK         0.0000 
     55 H55        78.7090   82.9820   -2.2830 H         1 UNK         0.0000 
     56 H56        80.3660   83.3050   -2.7530 H         1 UNK         0.0000 
     57 H57        79.7660   81.6450   -2.7020 H         1 UNK         0.0000 
     58 H58        82.5240   82.8540   -2.2050 H         1 UNK         0.0000 
     59 H59        83.6460   82.3570   -0.9910 H         1 UNK         0.0000 
     60 H60        83.6150   84.7850   -1.0990 H         1 UNK         0.0000 
     61 H61        81.8770   84.8460   -0.8720 H         1 UNK         0.0000 
     62 H62        82.9320   84.3390    0.4460 H         1 UNK         0.0000 
@<TRIPOS>BOND
     1    1   15 2    
     2    2    3 1    
     3    2   21 1    
     4    2   33 1    
     5    2   34 1    
     6    3    4 ar   
     7    3    8 ar   
     8    4    5 ar   
     9    4   35 1    
    10    5    6 ar   
    11    5   36 1    
    12    6    7 ar   
    13    6   32 1    
    14    7    8 ar   
    15    7   37 1    
    16    8   38 1    
    17    9   10 1    
    18    9   21 1    
    19    9   39 1    
    20    9   40 1    
    21   10   22 1    
    22   10   41 1    
    23   10   42 1    
    24   11   16 1    
    25   11   22 1    
    26   11   43 1    
    27   11   44 1    
    28   12   13 ar   
    29   12   17 ar   
    30   12   45 1    
    31   13   14 ar   
    32   13   46 1    
    33   14   15 1    
    34   14   19 ar   
    35   15   22 am   BACKBONE|DICT|INTERRES
    36   16   21 1    
    37   16   47 1    
    38   16   48 1    
    39   17   18 ar   
    40   17   49 1    
    41   18   19 ar   
    42   18   23 1    
    43   19   50 1    
    44   20   23 am   BACKBONE|DICT|INTERRES
    45   20   24 1    
    46   20   27 2    
    47   21   51 1    
    48   23   52 1    
    49   24   25 1    
    50   24   28 1    
    51   24   30 1    
    52   25   26 2    
    53   28   29 1    
    54   28   53 1    
    55   28   54 1    
    56   29   55 1    
    57   29   56 1    
    58   29   57 1    
    59   30   31 1    
    60   30   58 1    
    61   30   59 1    
    62   31   60 1    
    63   31   61 1    
    64   31   62 1    
@<TRIPOS>SUBSTRUCTURE
     1 UNK         1 GROUP             0       ****    0 ROOT    
