7AYQ
                    3D
 Structure written by MMmdl.
 62 64  0  0  1  0            999 V2000
   80.0010   75.4800   -2.2970 O   0  0  0  0  0  0
   83.7750   70.4640   -2.2050 C   0  0  0  0  0  0
   84.8990   70.0850   -3.1630 C   0  0  0  0  0  0
   86.1080   69.5500   -2.6700 C   0  0  0  0  0  0
   87.1170   69.1310   -3.5610 C   0  0  0  0  0  0
   86.9380   69.2750   -4.9500 C   0  0  0  0  0  0
   85.7600   69.8670   -5.4400 C   0  0  0  0  0  0
   84.7360   70.2490   -4.5570 C   0  0  0  0  0  0
   81.7120   71.8620   -2.0670 C   0  0  0  0  0  0
   80.9430   72.9170   -2.8800 C   0  0  0  0  0  0
   83.1060   73.9910   -3.4610 C   0  0  0  0  0  0
   82.9030   77.9930   -4.9830 C   0  0  0  0  0  0
   82.3300   76.7750   -4.5760 C   0  0  0  0  0  0
   81.7970   76.6390   -3.2730 C   0  0  0  0  0  0
   81.1080   75.3750   -2.8300 C   0  0  0  0  0  0
   83.8160   72.9240   -2.6180 C   0  0  0  0  0  0
   82.9010   79.0990   -4.1130 C   0  0  0  0  0  0
   82.3370   78.9990   -2.8240 C   0  0  0  0  0  0
   81.8080   77.7520   -2.4060 C   0  0  0  0  0  0
   81.6110   80.4650   -0.9180 C   0  0  0  0  0  0
   83.0450   71.6670   -2.6670 N   0  3  0  0  0  0
   81.7040   74.1730   -3.0380 N   0  0  0  0  0  0
   82.3170   80.1860   -2.0350 N   0  0  0  0  0  0
   81.5710   81.9460   -0.4380 C   0  0  0  0  0  0
   81.8230   81.9220    1.0950 C   0  0  0  0  0  0
   80.9310   82.1520    1.9150 O   0  0  0  0  0  0
   80.9900   79.6120   -0.2790 O   0  0  0  0  0  0
   80.1450   82.5150   -0.7210 C   0  0  0  0  0  0
   79.7310   82.6120   -2.2010 C   0  0  0  0  0  0
   82.6710   82.8240   -1.1250 C   0  0  0  0  0  0
   82.7740   84.2780   -0.6290 C   0  0  0  0  0  0
   88.2600   68.6450   -6.1690 Br  0  0  0  0  0  0
   84.1580   70.6180   -1.1980 H   0  0  0  0  0  0
   83.0910   69.6150   -2.1580 H   0  0  0  0  0  0
   86.2580   69.4350   -1.6060 H   0  0  0  0  0  0
   88.0270   68.6940   -3.1780 H   0  0  0  0  0  0
   85.6140   69.9920   -6.4980 H   0  0  0  0  0  0
   83.8250   70.6570   -4.9700 H   0  0  0  0  0  0
   81.1600   70.9250   -2.0580 H   0  0  0  0  0  0
   81.8160   72.1790   -1.0280 H   0  0  0  0  0  0
   79.9690   73.0640   -2.4140 H   0  0  0  0  0  0
   80.7360   72.5260   -3.8770 H   0  0  0  0  0  0
   83.1170   73.7050   -4.5140 H   0  0  0  0  0  0
   83.6930   74.9020   -3.3810 H   0  0  0  0  0  0
   83.3240   78.0870   -5.9720 H   0  0  0  0  0  0
   82.3030   75.9480   -5.2710 H   0  0  0  0  0  0
   83.9200   73.2570   -1.5850 H   0  0  0  0  0  0
   84.8210   72.7680   -2.9940 H   0  0  0  0  0  0
   83.3220   80.0360   -4.4490 H   0  0  0  0  0  0
   81.3820   77.6200   -1.4250 H   0  0  0  0  0  0
   82.8680   71.4920   -3.6460 H   0  0  0  0  0  0
   82.7910   80.9770   -2.4480 H   0  0  0  0  0  0
   80.0440   83.5050   -0.2730 H   0  0  0  0  0  0
   79.3980   81.9010   -0.2140 H   0  0  0  0  0  0
   78.7090   82.9820   -2.2830 H   0  0  0  0  0  0
   80.3660   83.3050   -2.7530 H   0  0  0  0  0  0
   79.7660   81.6450   -2.7020 H   0  0  0  0  0  0
   82.5240   82.8540   -2.2050 H   0  0  0  0  0  0
   83.6460   82.3570   -0.9910 H   0  0  0  0  0  0
   83.6150   84.7850   -1.0990 H   0  0  0  0  0  0
   81.8770   84.8460   -0.8720 H   0  0  0  0  0  0
   82.9320   84.3390    0.4460 H   0  0  0  0  0  0
  1 15  2  0  0  0
  2  3  1  0  0  0
  2 21  1  0  0  0
  2 33  1  0  0  0
  2 34  1  0  0  0
  3  4  1  0  0  0
  3  8  2  0  0  0
  4  5  2  0  0  0
  4 35  1  0  0  0
  5  6  1  0  0  0
  5 36  1  0  0  0
  6  7  2  0  0  0
  6 32  1  0  0  0
  7  8  1  0  0  0
  7 37  1  0  0  0
  8 38  1  0  0  0
  9 10  1  0  0  0
  9 21  1  0  0  0
  9 39  1  0  0  0
  9 40  1  0  0  0
 10 22  1  0  0  0
 10 41  1  0  0  0
 10 42  1  0  0  0
 11 16  1  0  0  0
 11 22  1  0  0  0
 11 43  1  0  0  0
 11 44  1  0  0  0
 12 13  1  0  0  0
 12 17  2  0  0  0
 12 45  1  0  0  0
 13 14  2  0  0  0
 13 46  1  0  0  0
 14 15  1  0  0  0
 14 19  1  0  0  0
 15 22  1  0  0  0
 16 21  1  0  0  0
 16 47  1  0  0  0
 16 48  1  0  0  0
 17 18  1  0  0  0
 17 49  1  0  0  0
 18 19  2  0  0  0
 18 23  1  0  0  0
 19 50  1  0  0  0
 20 23  1  0  0  0
 20 24  1  0  0  0
 20 27  2  0  0  0
 21 51  1  0  0  0
 23 52  1  0  0  0
 24 25  1  0  0  0
 24 28  1  0  0  0
 24 30  1  0  0  0
 25 26  2  0  0  0
 28 29  1  0  0  0
 28 53  1  0  0  0
 28 54  1  0  0  0
 29 55  1  0  0  0
 29 56  1  0  0  0
 29 57  1  0  0  0
 30 31  1  0  0  0
 30 58  1  0  0  0
 30 59  1  0  0  0
 31 60  1  0  0  0
 31 61  1  0  0  0
 31 62  1  0  0  0
M  CHG  1  21   1
M  END
> <s_pdb_PDB_TITLE>
CRYSTAL STRUCTURE OF DPP8 IN COMPLEX WITH A 4-OXO-B-LACTAM BASED INHIBITOR, B114

> <s_pdb_PDB_ID>
7AYQ

> <r_pdb_PDB_CRYST1_a>
149.505

> <r_pdb_PDB_CRYST1_b>
149.505

> <r_pdb_PDB_CRYST1_c>
269.331

> <r_pdb_PDB_CRYST1_alpha>
90

> <r_pdb_PDB_CRYST1_beta>
90

> <r_pdb_PDB_CRYST1_gamma>
120

> <s_pdb_PDB_CRYST1_Space_Group>
P 61

> <i_pdb_PDB_CRYST1_z>
12

> <s_pdb_PDB_CLASSIFICATION>
HYDROLASE

> <s_pdb_PDB_DEPOSITION_DATE>
13-NOV-20

> <s_pdb_PDB_format_version>
3.30

> <r_pdb_PDB_R>
0.193

> <r_pdb_PDB_Rfree>
0.228

> <r_pdb_PDB_RESOLUTION>
2.45

> <s_pdb_PDB_EXPDTA>
X-RAY DIFFRACTION

> <r_pdb_PDB_EXPDTA_TEMPERATURE>
100

> <s_pdb_PDB_REMARK_350_Biomolecule_1_Transform_1_Chains>
A, B

> <s_pdb_PDB_REMARK_350_Biomolecule_1_Transform_1_Matrix_1>
1.000000 0.000000 0.000000   0.000000;0.000000 1.000000 0.000000   0.000000;0.000000 0.000000 1.000000   0.000000

$$$$
